/*--------------------------------*- C++ -*----------------------------------*\
  =========                 |
  \\      /  F ield         | OpenFOAM: The Open Source CFD Toolbox
   \\    /   O peration     | Website:  https://openfoam.org
    \\  /    A nd           | Version:  9
     \\/     M anipulation  |
\*---------------------------------------------------------------------------*/
FoamFile
{
    format      ascii;
    class       dictionary;
    object      blockMeshDict;
}
// * * * * * * * * * * * * * * * * * * * * * * * * * * * * * * * * * * * * * //

convertToMeters 1;

xP1	-3.75;
yP1	0;
zP1	-5;
xP2	3.75;
yP2	17.5;
zP3	-0.4;
zP4	0.2;
zP5	2.5;

vertices
(
    ($xP1 $yP1 $zP1)
    ($xP2 $yP1 $zP1)
    ($xP2 $yP2 $zP1)
    ($xP1 $yP2 $zP1)

    ($xP1 $yP1 $zP3)
    ($xP2 $yP1 $zP3)
    ($xP2 $yP2 $zP3)
    ($xP1 $yP2 $zP3)

    ($xP1 $yP1 $zP4)
    ($xP2 $yP1 $zP4)
    ($xP2 $yP2 $zP4)
    ($xP1 $yP2 $zP4)

    ($xP1 $yP1 $zP5)
    ($xP2 $yP1 $zP5)
    ($xP2 $yP2 $zP5)
    ($xP1 $yP2 $zP5)


);

podzialX 41;
podzialY 100;

blocks
(
    hex (0 1 2 3 4 5 6 7) ($podzialX $podzialY 30) simpleGrading (1 1 1)
    hex (4 5 6 7 8 9 10 11) ($podzialX $podzialY 50) simpleGrading (1 1 1)
    hex (8 9 10 11 12 13 14 15) ($podzialX $podzialY 20) simpleGrading (1 1 1)
);

edges
(
);

boundary
(


    atmosphere
    {
        type patch;
        faces
        (
            (12 13 14 15)
        );
    }
    sideLeft
    {
        type symmetryPlane;
        faces
        (
            (1 2 6 5)
            (5 6 10 9)
            (9 10 14 13)
        );
    }
    sideRight
    {
        type symmetryPlane;
        faces
        (
            (0 4 7 3)
            (4 8 11 7)
            (8 12 15 11)
        );
    }
    bottom
    {
        type symmetryPlane;
        faces
        (
            (0 3 2 1)
        );
    }
    inlet
    {
        type patch;
        faces
        (
            (0 1 5 4)
            (4 5 9 8)
            (8 9 13 12)
        );
    }
    outlet
    {
        type patch;
        faces
        (
            (3 7 6 2)
            (7 11 10 6)
            (11 15 14 10)
        );
    }
);

mergePatchPairs
(
);

// ************************************************************************* //
