/*--------------------------------*- C++ -*----------------------------------*\
  =========                 |
  \\      /  F ield         | OpenFOAM: The Open Source CFD Toolbox
   \\    /   O peration     | Website:  https://openfoam.org
    \\  /    A nd           | Version:  9
     \\/     M anipulation  |
\*---------------------------------------------------------------------------*/
FoamFile
{
    format      ascii;
    class       dictionary;
    location    "system";
    object      topoSetDict;
}
// * * * * * * * * * * * * * * * * * * * * * * * * * * * * * * * * * * * * * //

actions
(
    {
        name    c1;
        type    cellSet;
        action  new;
        source  boxToCell;
        box (-0.4 3.8 -0.4) (0.4 6.8 0.6);
    }
    {
        name    c2;
        type    cellSet;
        action  new;
        source  boxToCell;
        box (-0.6 3.6 -0.6) (0.6 7 0.8);
    }
    {
        name    c3;
        type    cellSet;
        action  new;
        source  boxToCell;
        box (-0.8 3.4 -0.8) (0.8 7.2 1);
    }
    {
        name    c4;
        type    cellSet;
        action  new;
        source  boxToCell;
        box (-1 3.2 -1) (1 7.4 1.2);
    }  
    {
        name    c4;
        type    cellSet;
        action  new;
        source  boxToCell;
        box (-2.2 2.5 -2) (2.2 7.8 2);

    }
    {
        name    c5;
        type    cellSet;
        action  new;
        source  boxToCell;
        box (-2.4 2.7 -2.2) (2.4 8 2.2);

    }
    {
        name    c6;
        type    cellSet;
        action  new;
        source  boxToCell;
        box (-2.6 2.9 -2.4) (2.6 8.2 2.4);

    }

);

// ************************************************************************* //
